Version 4
SHEET 1 880 888
WIRE -288 0 -416 0
WIRE -240 0 -288 0
WIRE -416 32 -416 0
WIRE 256 64 144 64
WIRE 480 64 256 64
WIRE 256 128 256 64
WIRE 480 128 480 64
WIRE -416 144 -416 112
WIRE 208 144 96 144
WIRE 432 144 384 144
WIRE 384 256 384 144
WIRE 384 256 144 256
WIRE 256 304 256 224
WIRE 352 304 256 304
WIRE 480 304 480 224
WIRE 480 304 352 304
WIRE 640 304 480 304
WIRE 656 304 640 304
WIRE 352 352 352 304
WIRE 96 432 96 144
WIRE 96 432 -144 432
WIRE 304 432 96 432
WIRE -736 480 -896 480
WIRE -720 480 -736 480
WIRE 352 496 352 448
WIRE -896 512 -896 480
WIRE 144 576 144 256
WIRE 144 576 -128 576
WIRE 304 576 144 576
WIRE -896 624 -896 592
WIRE 352 624 352 592
WIRE -720 704 -896 704
WIRE -896 736 -896 704
WIRE -896 848 -896 816
FLAG 352 624 0
FLAG 144 64 VCC
FLAG 640 304 Out
FLAG -144 432 In1
FLAG -128 576 In2
FLAG -416 144 0
FLAG -288 0 VCC
FLAG -896 624 0
FLAG -896 848 0
FLAG -736 480 In1
FLAG -720 704 In2
SYMBOL pmos 208 224 M180
SYMATTR InstName M1
SYMATTR Value AO3423
SYMBOL nmos 304 352 R0
SYMATTR InstName M2
SYMATTR Value AO6408
SYMBOL pmos 432 224 M180
SYMATTR InstName M3
SYMATTR Value AO3423
SYMBOL nmos 304 496 R0
SYMATTR InstName M4
SYMATTR Value AO6408
SYMBOL voltage -416 16 R0
WINDOW 123 0 0 Left 0
WINDOW 39 0 0 Left 0
SYMATTR InstName V1
SYMATTR Value 10
SYMBOL voltage -896 496 R0
WINDOW 123 0 0 Left 0
WINDOW 39 0 0 Left 0
SYMATTR InstName V2
SYMATTR Value PULSE(0 10 0 0 0 5m 10m 50)
SYMBOL voltage -896 720 R0
WINDOW 123 0 0 Left 0
WINDOW 39 0 0 Left 0
SYMATTR InstName V3
SYMATTR Value PULSE(0 10 0 0 0 50m 100m 50)
TEXT -930 872 Left 2 !.tran 1
